#!/sbin/sh

#################
# Initialization
#################

umask 022

# echo before loading util_functions
ui_print() { echo "$1"; }

require_new_magisk() {
  ui_print "*******************************"
  ui_print " Please install Magisk v20.0+! "
  ui_print "*******************************"
  exit 1
}

#########################
# Load util_functions.sh
#########################

OUTFD=$2
ZIPFILE=$3

mount /data 2>/dev/null

[ -f /data/adb/magisk/util_functions.sh ] || require_new_magisk
. /data/adb/magisk/util_functions.sh
[ $MAGISK_VER_CODE -lt 20000 ] && require_new_magisk

if [ $MAGISK_VER_CODE -ge 20400 ]; then
  # New Magisk have complete installation logic within util_functions.sh
  install_module
  exit 0
fi

# Legacy Support
TMPDIR=/dev/tmp
is_legacy_script() { unzip -l "$ZIPFILE" install.sh | grep -q install.sh; return $?; }
abort() { ui_print "$1"; $BOOTMODE || recovery_cleanup; [ -n $MODPATH ] && rm -rf $MODPATH; rm -rf $TMPDIR; exit 1; }
rm -rf $TMPDIR 2>/dev/null
mkdir -p $TMPDIR

# Flashable Zips Preparation
setup_flashable
mount_partitions
api_level_arch_detect
$BOOTMODE && boot_actions || recovery_actions

# Preparation
unzip -o "$ZIPFILE" module.prop -d $TMPDIR >&2
[ ! -f $TMPDIR/module.prop ] && abort "! Unable to extract zip file!"

# Install
print_modname
is_legacy_script && . $TMPDIR/install.sh || . $MODPATH/customize.sh

# Handle replace folders
for TARGET in $REPLACE; do
  ui_print "- Replace target: $TARGET"
  mktouch $MODPATH$TARGET/.replace
done

$BOOTMODE && mktouch $NVBASE/modules/$MODID/update && cp -af $MODPATH/module.prop $NVBASE/modules/$MODID/module.prop

# Remove unnecessary files
rm -rf $MODPATH/system/placeholder $MODPATH/customize.sh $MODPATH/README.md $MODPATH/.git* 2>/dev/null

# Finalizing
cd /
$BOOTMODE || recovery_cleanup
rm -rf $TMPDIR

ui_print "- Done"
exit 0